[General]
network = Tictoc1
Tictoc.tic.delayTime = exponential(1s)
Tictoc.toc.delayTime = exponential(0.1s)
record-eventlog = true
sim-time-limit = 100s
