[General]
network = Reliability
Reliability.node[*].transmissionTime = uniform(1s, 2s)
Reliability.node[*].delayTime = uniform(0.01s, 0.2s)
Reliability.node[*].lossProbability = 0.3
record-eventlog = true
sim-time-limit = 1000s
repeat = 5
