[General]
network = Tictoc1
Tictoc1.tic.delayTime = exponential(2s)
Tictoc1.toc.delayTime = exponential(0s)
Tictoc1.*.lossProbability = 0.9
record-eventlog = true
sim-time-limit = 500s