[General]
network = Multihop
Multihop.node[*].delayTime = exponential(1s)
record-eventlog = true
sim-time-limit = 200s