[General]
network = Reliability
Reliability.node[*].transmissionTime = uniform(1s, 2s)
Reliability.node[*].delayTime = uniform(0.01s, 0.2s)
Reliability.node[0].lossProbability = 0.5
Reliability.node[1].lossProbability = 0.6
Reliability.node[2].lossProbability = 0.7
Reliability.node[3].lossProbability = 0.1
Reliability.node[4].lossProbability = 0.2
Reliability.node[5].lossProbability = 0.1
record-eventlog = true
sim-time-limit = 240s
repeat = 5
