[General]
network = Multihop
Multihop.node[*].transmissionTime = uniform(1s, 2s)
Multihop.node[*].delayTime = uniform(0.01s, 0.2s)
Multihop.node[*].lossProbability = uniform(0, 0.2)
record-eventlog = true
sim-time-limit = 240s