[General]
network = Multihop
Multihop.node[*].transmissionTime = uniform(1s, 2s)
Multihop.node[*].delayTime = uniform(0.01s, 0.2s)
Multihop.node[*].lossProbability = 0.3
record-eventlog = true
sim-time-limit = 1000s
repeat = 5