[General]
network = Reliability
Reliability.node[*].transmissionTime = uniform(1s, 2s)
Reliability.node[*].delayTime = uniform(0.01s, 0.2s)
Reliability.node[*].lossProbability = 0.0
record-eventlog = true
sim-time-limit = 240s
repeat = 5
